data_1
_audit_creation_date              0000-00-00
_audit_creation_method            'LanYouShi'
_symmetry_space_group_name_H-M    'P1'
_cell_length_a                    23.6245003
_cell_length_b                    24.8922005
_cell_length_c                    4.4791002
_cell_angle_alpha                 90.1844025
_cell_angle_beta                  97.5922012
_cell_angle_gamma                 120.0618973
loop_
_atom_site_label
_atom_site_type_symbol
_atom_site_fract_x
_atom_site_fract_y
_atom_site_fract_z
_atom_site_U_iso_or_equiv
_atom_site_adp_type
_atom_site_occupancy
        C1          C  0.4411100  0.5022700  0.6779900    0.00000       Uiso       1.00
        C2          C  0.4398900  0.4463100  0.7410600    0.00000       Uiso       1.00
        C3          C  0.4936200  0.4390900  0.6932900    0.00000       Uiso       1.00
        C4          C  0.5461400  0.4869000  0.5573500    0.00000       Uiso       1.00
        C5          C  0.5490600  0.5447400  0.5192600    0.00000       Uiso       1.00
        C6          C  0.4984900  0.5534900  0.5981900    0.00000       Uiso       1.00
        C7          C  0.3832500  0.5044400  0.6771000    0.00000       Uiso       1.00
        C8          C  0.3257200  0.4541400  0.7470400    0.00000       Uiso       1.00
        C9          C  0.3250900  0.3991200  0.8318400    0.00000       Uiso       1.00
       C10          C  0.3834000  0.3965900  0.8416400    0.00000       Uiso       1.00
       C11          C  0.3844800  0.3437200  0.9428500    0.00000       Uiso       1.00
       C12          C  0.4396500  0.3373700  0.9096099    0.00000       Uiso       1.00
       C13          C  0.4916500  0.3836500  0.7765700    0.00000       Uiso       1.00
       C14          C  0.6023400  0.5940500  0.3985400    0.00000       Uiso       1.00
       C15          C  0.6095700  0.6538700  0.3949000    0.00000       Uiso       1.00
       C16          C  0.5597200  0.6626900  0.4880500    0.00000       Uiso       1.00
       C17          C  0.5058700  0.6130500  0.5890200    0.00000       Uiso       1.00
       C18          C  0.5959100  0.4792800  0.4580400    0.00000       Uiso       1.00
       C19          C  0.6463500  0.5262800  0.3217100    0.00000       Uiso       1.00
       C20          C  0.6482200  0.5835400  0.2802800    0.00000       Uiso       1.00
       C21          C  0.2674200  0.4616700  0.6935300    0.00000       Uiso       1.00
       C22          C  0.5569300  0.7205600  0.4606100    0.00000       Uiso       1.00
       C23          C  0.6975400  0.5146800  0.2322100    0.00000       Uiso       1.00
       C24          C  0.4443100  0.2818500  0.9925100    0.00000       Uiso       1.00
       C25          C  0.2691600  0.5120600  0.8445700    0.00000       Uiso       1.00
       C26          C  0.2259100  0.5324900  0.7321800    0.00000       Uiso       1.00
       C27          C  0.1802400  0.5024300  0.4692400    0.00000       Uiso       1.00
       C28          C  0.1761100  0.4500300  0.3279600    0.00000       Uiso       1.00
       C29          C  0.2210800  0.4314500  0.4338300    0.00000       Uiso       1.00
       C30          C  0.3985100  0.2227700  0.8481900    0.00000       Uiso       1.00
       C31          C  0.4089500  0.1726100  0.8930500    0.00000       Uiso       1.00
       C32          C  0.4647000  0.1806400  0.0888800    0.00000       Uiso       1.00
       C33          C  0.5087300  0.2388900  0.2443700    0.00000       Uiso       1.00
       C34          C  0.4994100  0.2893200  0.1907600    0.00000       Uiso       1.00
       C35          C  0.5927500  0.7705799  0.6818400    0.00000       Uiso       1.00
       C36          C  0.5808700  0.8203301  0.6824600    0.00000       Uiso       1.00
       C37          C  0.5320400  0.8199100  0.4642700    0.00000       Uiso       1.00
       C38          C  0.4969700  0.7702501  0.2410700    0.00000       Uiso       1.00
       C39          C  0.5087500  0.7206800  0.2418500    0.00000       Uiso       1.00
       C40          C  0.6794100  0.4606200  0.0526100    0.00000       Uiso       1.00
       C41          C  0.7267200  0.4546400 -1.0761400    0.00000       Uiso       1.00
       C42          C  0.7928000  0.5025600 -1.0217700    0.00000       Uiso       1.00
       C43          C  0.8119800  0.5534100  0.1847300    0.00000       Uiso       1.00
       C44          C  0.7647100  0.5584900  0.3176100    0.00000       Uiso       1.00
       C45          C  0.2641100  0.3422600  0.8935000    0.00000       Uiso       1.00
       C46          C  0.3276000  0.2974800  0.0883000    0.00000       Uiso       1.00
       C47          C  0.6967300  0.6337600  0.1124000    0.00000       Uiso       1.00
       C48          C  0.6714200  0.7061900  0.3079800    0.00000       Uiso       1.00
       C49          C  0.7770100  0.7437000  0.0695400    0.00000       Uiso       1.00
       C50          C  0.5137900  0.8683300  0.4746400    0.00000       Uiso       1.00
       C51          C  0.1397800  0.5280100  0.3360300    0.00000       Uiso       1.00
       C52          C  0.4809000  0.1307600  0.1139300    0.00000       Uiso       1.00
       C53          C  0.8425300  0.4975300 -1.1615100    0.00000       Uiso       1.00
       C54          C  0.9547300  0.4950700 -1.3590500    0.00000       Uiso       1.00
       C55          C  0.0077200  0.4850800 -1.2817400    0.00000       Uiso       1.00
       C56          C  0.0623900  0.5273000 -1.0748000    0.00000       Uiso       1.00
       C57          C  0.0694300  0.5849200  0.0105500    0.00000       Uiso       1.00
       C58          C  0.0165100  0.5947200 -1.0664999    0.00000       Uiso       1.00
       C59          C  0.9571100  0.5475000 -1.2260799    0.00000       Uiso       1.00
       C60          C  0.4387900 -1.0075500  0.6376100    0.00000       Uiso       1.00
       C61          C  0.4558700 -1.0526600  0.5855100    0.00000       Uiso       1.00
       C62          C  0.5116100 -1.0496200  0.7604700    0.00000       Uiso       1.00
       C63          C  0.5479901 -1.0023900  0.9932800    0.00000       Uiso       1.00
       C64          C  0.5308300  0.0427100  0.0458600    0.00000       Uiso       1.00
       C65          C  0.4757600  0.0402800  0.8670600    0.00000       Uiso       1.00
       C66          C  0.2101100  0.2419500  0.1670800    0.00000       Uiso       1.00
       C67          C  0.7865400  0.8100600  0.0716200    0.00000       Uiso       1.00
       C68          C  0.8490600  0.8588200  0.9520499    0.00000       Uiso       1.00
       C69          C  0.8438000  0.9162199  0.8783500    0.00000       Uiso       1.00
       C70          C  0.9045800  0.9634900  0.7465100    0.00000       Uiso       1.00
       C71          C  0.8981700  0.0197500  0.6618500    0.00000       Uiso       1.00
       C72          C  0.9573300  0.0651900  0.5158700    0.00000       Uiso       1.00
       C73          C  0.8362300  0.7434800  0.2668500    0.00000       Uiso       1.00
       C74          C  0.8836300  0.7375600  0.0833500    0.00000       Uiso       1.00
       C75          C  0.9413600  0.7401900  0.2986200    0.00000       Uiso       1.00
       C76          C  0.9985100  0.7521799  0.1310400    0.00000       Uiso       1.00
       C77          C  0.0562900  0.7571599  0.3534600    0.00000       Uiso       1.00
       C78          C  0.1160900  0.7752700  0.1943200    0.00000       Uiso       1.00
       C79          C  0.1481600  0.2490100  0.1488200    0.00000       Uiso       1.00
       C80          C  0.0899300  0.2007100  0.2945700    0.00000       Uiso       1.00
       C81          C  0.0506000  0.2293300  0.4011600    0.00000       Uiso       1.00
       C82          C  0.0063500  0.2366600  0.1425800    0.00000       Uiso       1.00
       C83          C  0.9672100  0.2624900  0.2720700    0.00000       Uiso       1.00
       C84          C  0.9242100  0.2726200  0.0195300    0.00000       Uiso       1.00
       C85          C  0.1918500  0.1782700  0.0094200    0.00000       Uiso       1.00
       C86          C  0.1966600  0.1329200  0.2297200    0.00000       Uiso       1.00
       C87          C  0.1865100  0.0739900  0.0622700    0.00000       Uiso       1.00
       C88          C  0.1134100  0.0286300  0.9368000    0.00000       Uiso       1.00
       C89          C  0.1056700  0.9697900  0.7840100    0.00000       Uiso       1.00
       C90          C  0.0334100  0.9254801  0.6490500    0.00000       Uiso       1.00
       H91          H  0.3793200  0.5431200  0.5915100    0.00000       Uiso       1.00
       H92          H  0.5302700  0.3747100  0.7431000    0.00000       Uiso       1.00
       H93          H  0.4705700  0.6229000  0.6667400    0.00000       Uiso       1.00
       H94          H  0.5967400  0.4368200  0.4808600    0.00000       Uiso       1.00
       H95          H  0.3064800  0.5374700  0.0395500    0.00000       Uiso       1.00
       H96          H  0.2293400  0.5727800  0.8452100    0.00000       Uiso       1.00
       H97          H  0.1417700  0.4267300  0.1217900    0.00000       Uiso       1.00
       H98          H  0.2235500  0.3968300  0.3012100    0.00000       Uiso       1.00
       H99          H  0.3560500  0.2162700  0.6940000    0.00000       Uiso       1.00
      H100          H  0.3745800  0.1279500  0.7699600    0.00000       Uiso       1.00
      H101          H  0.5521700  0.2461200  0.3953000    0.00000       Uiso       1.00
      H102          H  0.5363300  0.3346900  0.2959800    0.00000       Uiso       1.00
      H103          H  0.6278200  0.7695900  0.8596000    0.00000       Uiso       1.00
      H104          H  0.6078000  0.8578900  0.8594400    0.00000       Uiso       1.00
      H105          H  0.4590100  0.7689400  0.0711800    0.00000       Uiso       1.00
      H106          H  0.4787100  0.6812300  0.0780500    0.00000       Uiso       1.00
      H107          H  0.6285200  0.4242600  0.0040000    0.00000       Uiso       1.00
      H108          H  0.7115900  0.4139100 -1.2255501    0.00000       Uiso       1.00
      H109          H  0.8636200  0.5886600  0.2443500    0.00000       Uiso       1.00
      H110          H  0.7796700  0.5978500  0.4759700    0.00000       Uiso       1.00
      H111          H  0.7754700  0.7307200 -1.1716599    0.00000       Uiso       1.00
      H112          H  0.4832800  0.8705800  0.2782700    0.00000       Uiso       1.00
      H113          H  0.1379000  0.5631300  0.4700400    0.00000       Uiso       1.00
      H114          H  0.5160000  0.1342700  0.3053300    0.00000       Uiso       1.00
      H115          H  0.8345100  0.4514800 -1.2122400    0.00000       Uiso       1.00
      H116          H  0.9102299  0.4597200 -1.4991100    0.00000       Uiso       1.00
      H117          H  0.0039700  0.4420300 -1.3594600    0.00000       Uiso       1.00
      H118          H  0.1131600  0.6199900  0.1556000    0.00000       Uiso       1.00
      H119          H  0.0181400  0.6350700  0.0335500    0.00000       Uiso       1.00
      H120          H  0.3969700 -1.0091300  0.4968500    0.00000       Uiso       1.00
      H121          H  0.4252900 -1.0894600  0.4094100    0.00000       Uiso       1.00
      H122          H  0.5900800 -1.0006300  0.1326000    0.00000       Uiso       1.00
      H123          H  0.5612100  0.0792100  0.2232400    0.00000       Uiso       1.00
      H124          H  0.2269200  0.2433000  0.4133200    0.00000       Uiso       1.00
      H125          H  0.7893100  0.8274699  0.3036600    0.00000       Uiso       1.00
      H126          H  0.7419200  0.8062200  0.9319699    0.00000       Uiso       1.00
      H127          H  0.8548100  0.8392400  0.7462100    0.00000       Uiso       1.00
      H128          H  0.8939400  0.8721500  0.1208900    0.00000       Uiso       1.00
      H129          H  0.8390900  0.9375300  0.0853700    0.00000       Uiso       1.00
      H130          H  0.7983200  0.9022600  0.7112400    0.00000       Uiso       1.00
      H131          H  0.9089500  0.9412500  0.5418800    0.00000       Uiso       1.00
      H132          H  0.9504200  0.9784200  0.9112300    0.00000       Uiso       1.00
      H133          H  0.8951900  0.0433800  0.8662700    0.00000       Uiso       1.00
      H134          H  0.8515700  0.0044300  0.5011500    0.00000       Uiso       1.00
      H135          H  0.9669700  0.0410700  0.3378000    0.00000       Uiso       1.00
      H136          H  0.0026500  0.0894800  0.6871900    0.00000       Uiso       1.00
      H137          H  0.9468001  0.0998400  0.4070000    0.00000       Uiso       1.00
      H138          H  0.8176700  0.7048300  0.4172100    0.00000       Uiso       1.00
      H139          H  0.8653700  0.7865400  0.4166000    0.00000       Uiso       1.00
      H140          H  0.9028600  0.7763500  0.9335800    0.00000       Uiso       1.00
      H141          H  0.8565800  0.6925400  0.9397700    0.00000       Uiso       1.00
      H142          H  0.9237700  0.6957600  0.4096500    0.00000       Uiso       1.00
      H143          H  0.9598000  0.7780500  0.4809100    0.00000       Uiso       1.00
      H144          H  0.0152300  0.7964500  0.0189900    0.00000       Uiso       1.00
      H145          H  0.9813000  0.7135300  0.9534100    0.00000       Uiso       1.00
      H146          H  0.0408400  0.7117700  0.4538500    0.00000       Uiso       1.00
      H147          H  0.0705000  0.7930601  0.5420900    0.00000       Uiso       1.00
      H148          H  0.1571900  0.7772400  0.3559200    0.00000       Uiso       1.00
      H149          H  0.1338800  0.8218900  0.1062700    0.00000       Uiso       1.00
      H150          H  0.1035500  0.7407800  0.0027600    0.00000       Uiso       1.00
      H151          H  0.1284800  0.2467800  0.9113500    0.00000       Uiso       1.00
      H152          H  0.1651800  0.2959100  0.2526200    0.00000       Uiso       1.00
      H153          H  0.1090400  0.1846100  0.4894600    0.00000       Uiso       1.00
      H154          H  0.0569100  0.1587900  0.1355100    0.00000       Uiso       1.00
      H155          H  0.0848700  0.2760000  0.5250500    0.00000       Uiso       1.00
      H156          H  0.0197300  0.1993500  0.5651000    0.00000       Uiso       1.00
      H157          H  0.9716500  0.1907900  0.0138500    0.00000       Uiso       1.00
      H158          H  0.0376400  0.2697000  0.9869900    0.00000       Uiso       1.00
      H159          H  0.0020300  0.3077200  0.4076100    0.00000       Uiso       1.00
      H160          H  0.9351701  0.2292700  0.4253800    0.00000       Uiso       1.00
      H161          H  0.9555000  0.3077100  0.8714700    0.00000       Uiso       1.00
      H162          H  0.8953600  0.2904500  0.1177800    0.00000       Uiso       1.00
      H163          H  0.8886700  0.2282300  0.8818400    0.00000       Uiso       1.00
      H164          H  0.2253500  0.1865900  0.8416200    0.00000       Uiso       1.00
      H165          H  0.1408800  0.1547500  0.8863800    0.00000       Uiso       1.00
      H166          H  0.1597800  0.1199600  0.3861900    0.00000       Uiso       1.00
      H167          H  0.2468700  0.1566600  0.3679600    0.00000       Uiso       1.00
      H168          H  0.2048600  0.0501200  0.2235800    0.00000       Uiso       1.00
      H169          H  0.2171300  0.0868300  0.8769400    0.00000       Uiso       1.00
      H170          H  0.0942700  0.0508500  0.7693900    0.00000       Uiso       1.00
      H171          H  0.0832400  0.0159900  0.1234500    0.00000       Uiso       1.00
      H172          H  0.1228000  0.9458800  0.9514999    0.00000       Uiso       1.00
      H173          H  0.1369200  0.9824700  0.6010800    0.00000       Uiso       1.00
      H174          H  0.0293000  0.8852901  0.5194800    0.00000       Uiso       1.00
      H175          H  0.0144100  0.9491300  0.4906500    0.00000       Uiso       1.00
      H176          H  0.0019600  0.9078100  0.8301500    0.00000       Uiso       1.00
      N177          N  0.2671000  0.2947100  0.0427800    0.00000       Uiso       1.00
      N178          N  0.7135100  0.6949700  0.1648300    0.00000       Uiso       1.00
      N179          N  0.8988800  0.5473600 -1.1748600    0.00000       Uiso       1.00
      N180          N  0.1056700  0.5074300  0.0674400    0.00000       Uiso       1.00
      N181          N  0.4580400  0.0872000  0.8958200    0.00000       Uiso       1.00
      N182          N  0.5312500  0.9052300  0.7171900    0.00000       Uiso       1.00
      O183          O  0.2111400  0.3378200  0.8018500    0.00000       Uiso       1.00
      O184          O  0.3349900  0.2619700  0.2533000    0.00000       Uiso       1.00
      O185          O  0.6848400  0.7591600  0.3722400    0.00000       Uiso       1.00
      O186          O  0.7219200  0.6207100 -1.0752500    0.00000       Uiso       1.00
