data_2
_audit_creation_date              0000-00-00
_audit_creation_method            'LanYouShi'
_symmetry_space_group_name_H-M    'P1'
_cell_length_a                    37.1576004
_cell_length_b                    37.1576004
_cell_length_c                    4.3559999
_cell_angle_alpha                 90.0000000
_cell_angle_beta                  90.0000000
_cell_angle_gamma                 120.0000000
loop_
_atom_site_label
_atom_site_type_symbol
_atom_site_fract_x
_atom_site_fract_y
_atom_site_fract_z
_atom_site_U_iso_or_equiv
_atom_site_adp_type
_atom_site_occupancy
        C1          C  0.2912200  0.6362000 -0.0766100    0.00000       Uiso       1.00
        C2          C  0.3026200  0.6783600 -0.0757100    0.00000       Uiso       1.00
        C3          C  0.3101400  0.5800800 -0.0541200    0.00000       Uiso       1.00
        C4          C  0.2250400  0.4206900  0.0495400    0.00000       Uiso       1.00
        C5          C  0.2601000  0.4504500  0.2130000    0.00000       Uiso       1.00
        C6          C  0.2765200  0.4929500  0.1626200    0.00000       Uiso       1.00
        C7          C  0.2575100  0.5070300 -0.0463200    0.00000       Uiso       1.00
        C8          C  0.2220400  0.4778700 -0.2038000    0.00000       Uiso       1.00
        C9          C  0.2065200  0.4352700 -0.1622900    0.00000       Uiso       1.00
       N10          N  0.2718300  0.5505100 -0.0871900    0.00000       Uiso       1.00
       C11          C  0.6506900  0.8136500  0.0920500    0.00000       Uiso       1.00
       C12          C  0.6929800  0.8368300  0.1553300    0.00000       Uiso       1.00
       C13          C  0.7111600  0.8783200  0.2479800    0.00000       Uiso       1.00
       C14          C  0.6861100  0.8968600  0.2757100    0.00000       Uiso       1.00
       C15          C  0.6436900  0.8741500  0.1934000    0.00000       Uiso       1.00
       C16          C  0.6251100  0.8315100  0.1079900    0.00000       Uiso       1.00
       C17          C  0.7564800  0.9016400  0.3094300    0.00000       Uiso       1.00
       O18          O  0.7015900  0.9352200  0.4274900    0.00000       Uiso       1.00
       O19          O  0.6201000  0.8938300  0.2193000    0.00000       Uiso       1.00
       C20          C  0.6077400  0.9030800 -0.0667900    0.00000       Uiso       1.00
       C21          C  0.7745100  0.8855700  0.5107200    0.00000       Uiso       1.00
       C22          C  0.8176400  0.9061100  0.5522400    0.00000       Uiso       1.00
       C23          C  0.8434600  0.9432200  0.3925800    0.00000       Uiso       1.00
       C24          C  0.8253900  0.9592200  0.1932900    0.00000       Uiso       1.00
       C25          C  0.7824600  0.9381100  0.1460600    0.00000       Uiso       1.00
       C26          C  0.7161300  0.9710200  0.2345900    0.00000       Uiso       1.00
       C27          C  0.7000500  0.9994300  0.3446900    0.00000       Uiso       1.00
       O28          O  0.6568600  0.9805900  0.2892100    0.00000       Uiso       1.00
       C29          C  0.6470300  0.0095100  0.1609600    0.00000       Uiso       1.00
       C30          C  0.6007400  0.9882300  0.0856400    0.00000       Uiso       1.00
       O31          O  0.5898900  0.9569700 -0.1396900    0.00000       Uiso       1.00
       C32          C  0.5759900  0.9172300 -0.0088500    0.00000       Uiso       1.00
       C33          C  0.9759399  0.0193500  0.5262900    0.00000       Uiso       1.00
       C34          C  0.9562900  0.9757300  0.5247800    0.00000       Uiso       1.00
       C35          C  0.9105400  0.9497100  0.5109500    0.00000       Uiso       1.00
       N36          N  0.8878800  0.9655800  0.4265500    0.00000       Uiso       1.00
       H37          H  0.2585800  0.6127300 -0.0701600    0.00000       Uiso       1.00
       H38          H  0.3344100  0.5726800 -0.0096500    0.00000       Uiso       1.00
       H39          H  0.2742600  0.4413800  0.3893200    0.00000       Uiso       1.00
       H40          H  0.3028400  0.5146900  0.2987900    0.00000       Uiso       1.00
       H41          H  0.2068800  0.4882100 -0.3646900    0.00000       Uiso       1.00
       H42          H  0.1801100  0.4138500 -0.2991000    0.00000       Uiso       1.00
       H43          H  0.6379700  0.7811400  0.0365900    0.00000       Uiso       1.00
       H44          H  0.7116400  0.8220000  0.1352900    0.00000       Uiso       1.00
       H45          H  0.5932600  0.8752800 -0.2158000    0.00000       Uiso       1.00
       H46          H  0.6354700  0.9275400 -0.1888500    0.00000       Uiso       1.00
       H47          H  0.7551700  0.8571100  0.6358800    0.00000       Uiso       1.00
       H48          H  0.8304500  0.8933600  0.7134600    0.00000       Uiso       1.00
       H49          H  0.8448800  0.9873300  0.0647500    0.00000       Uiso       1.00
       H50          H  0.7697700  0.9493400 -0.0282500    0.00000       Uiso       1.00
       H51          H  0.7078100  0.9627000 -0.0101500    0.00000       Uiso       1.00
       H52          H  0.7504900  0.9892500  0.2523200    0.00000       Uiso       1.00
       H53          H  0.7190200  0.0300900  0.2284800    0.00000       Uiso       1.00
       H54          H  0.7057800  0.0050000  0.5946000    0.00000       Uiso       1.00
       H55          H  0.6645100  0.0227700 -0.0563500    0.00000       Uiso       1.00
       H56          H  0.6545600  0.0351200  0.3268500    0.00000       Uiso       1.00
       H57          H  0.5945400  0.0121300 -0.0135200    0.00000       Uiso       1.00
       H58          H  0.5815300  0.9773500  0.2976900    0.00000       Uiso       1.00
       H59          H  0.5681900  0.9147700  0.2402100    0.00000       Uiso       1.00
       H60          H  0.5464100  0.8950600 -0.1244600    0.00000       Uiso       1.00
       H61          H  0.9574201  0.0344400  0.5235900    0.00000       Uiso       1.00
       H62          H  0.8965200  0.9166700  0.5504600    0.00000       Uiso       1.00
       C63          C  0.3638000  0.6550200 -0.0766100    0.00000       Uiso       1.00
       C64          C  0.3216400  0.6242600 -0.0757100    0.00000       Uiso       1.00
       C65          C  0.4199200  0.7300600 -0.0541200    0.00000       Uiso       1.00
       C66          C  0.5793100  0.8043500  0.0495400    0.00000       Uiso       1.00
       C67          C  0.5495500  0.8096500  0.2130000    0.00000       Uiso       1.00
       C68          C  0.5070500  0.7835700  0.1626200    0.00000       Uiso       1.00
       C69          C  0.4929700  0.7504800 -0.0463200    0.00000       Uiso       1.00
       C70          C  0.5221300  0.7441700 -0.2038000    0.00000       Uiso       1.00
       C71          C  0.5647300  0.7712500 -0.1622900    0.00000       Uiso       1.00
       N72          N  0.4494900  0.7213200 -0.0871900    0.00000       Uiso       1.00
       C73          C  0.1863500  0.8370400  0.0920500    0.00000       Uiso       1.00
       C74          C  0.1631700  0.8561500  0.1553300    0.00000       Uiso       1.00
       C75          C  0.1216800  0.8328400  0.2479800    0.00000       Uiso       1.00
       C76          C  0.1031400  0.7892500  0.2757100    0.00000       Uiso       1.00
       C77          C  0.1258500  0.7695400  0.1934000    0.00000       Uiso       1.00
       C78          C  0.1684900  0.7936000  0.1079900    0.00000       Uiso       1.00
       C79          C  0.0983600  0.8548400  0.3094300    0.00000       Uiso       1.00
       O80          O  0.0647800  0.7663700  0.4274900    0.00000       Uiso       1.00
       O81          O  0.1061700  0.7262700  0.2193000    0.00000       Uiso       1.00
       C82          C  0.0969200  0.7046600 -0.0667900    0.00000       Uiso       1.00
       C83          C  0.1144300  0.8889400  0.5107200    0.00000       Uiso       1.00
       C84          C  0.0938900  0.9115300  0.5522400    0.00000       Uiso       1.00
       C85          C  0.0567800  0.9002400  0.3925800    0.00000       Uiso       1.00
       C86          C  0.0407800  0.8661700  0.1932900    0.00000       Uiso       1.00
       C87          C  0.0618900  0.8443500  0.1460600    0.00000       Uiso       1.00
       C88          C  0.0289800  0.7451100  0.2345900    0.00000       Uiso       1.00
       C89          C  0.0005700  0.7006200  0.3446900    0.00000       Uiso       1.00
       O90          O  0.0194100  0.6762700  0.2892100    0.00000       Uiso       1.00
       C91          C  0.9904900  0.6375200  0.1609600    0.00000       Uiso       1.00
       C92          C  0.0117700  0.6125100  0.0856400    0.00000       Uiso       1.00
       O93          O  0.0430300  0.6329200 -0.1396900    0.00000       Uiso       1.00
       C94          C  0.0827700  0.6587600 -0.0088500    0.00000       Uiso       1.00
       C95          C  0.9806500  0.9565900  0.5262900    0.00000       Uiso       1.00
       C96          C  0.0242700  0.9805600  0.5247800    0.00000       Uiso       1.00
       C97          C  0.0502900  0.9608300  0.5109500    0.00000       Uiso       1.00
       N98          N  0.0344200  0.9223000  0.4265500    0.00000       Uiso       1.00
       H99          H  0.3872700  0.6458500 -0.0701600    0.00000       Uiso       1.00
      H100          H  0.4273200  0.7617300 -0.0096500    0.00000       Uiso       1.00
      H101          H  0.5586200  0.8328800  0.3893200    0.00000       Uiso       1.00
      H102          H  0.4853100  0.7881500  0.2987900    0.00000       Uiso       1.00
      H103          H  0.5117900  0.7186700 -0.3646900    0.00000       Uiso       1.00
      H104          H  0.5861500  0.7662600 -0.2991000    0.00000       Uiso       1.00
      H105          H  0.2188600  0.8568300  0.0365900    0.00000       Uiso       1.00
      H106          H  0.1780000  0.8896400  0.1352900    0.00000       Uiso       1.00
      H107          H  0.1247200  0.7179800 -0.2158000    0.00000       Uiso       1.00
      H108          H  0.0724600  0.7079300 -0.1888500    0.00000       Uiso       1.00
      H109          H  0.1428900  0.8980600  0.6358800    0.00000       Uiso       1.00
      H110          H  0.1066400  0.9370900  0.7134600    0.00000       Uiso       1.00
      H111          H  0.0126700  0.8575500  0.0647500    0.00000       Uiso       1.00
      H112          H  0.0506600  0.8204300 -0.0282500    0.00000       Uiso       1.00
      H113          H  0.0373000  0.7451100 -0.0101500    0.00000       Uiso       1.00
      H114          H  0.0107500  0.7612400  0.2523200    0.00000       Uiso       1.00
      H115          H  0.9699100  0.6889300  0.2284800    0.00000       Uiso       1.00
      H116          H  0.9950000  0.7007800  0.5946000    0.00000       Uiso       1.00
      H117          H  0.9772300  0.6417400 -0.0563500    0.00000       Uiso       1.00
      H118          H  0.9648800  0.6194400  0.3268500    0.00000       Uiso       1.00
      H119          H  0.9878700  0.5824100 -0.0135200    0.00000       Uiso       1.00
      H120          H  0.0226500  0.6041800  0.2976900    0.00000       Uiso       1.00
      H121          H  0.0852300  0.6534200  0.2402100    0.00000       Uiso       1.00
      H122          H  0.1049400  0.6513500 -0.1244600    0.00000       Uiso       1.00
      H123          H  0.9655600  0.9229800  0.5235900    0.00000       Uiso       1.00
      H124          H  0.0833300  0.9798500  0.5504600    0.00000       Uiso       1.00
      C125          C  0.3449800  0.7087800 -0.0766100    0.00000       Uiso       1.00
      C126          C  0.3757400  0.6973800 -0.0757100    0.00000       Uiso       1.00
      C127          C  0.2699400  0.6898600 -0.0541200    0.00000       Uiso       1.00
      C128          C  0.1956500  0.7749600  0.0495400    0.00000       Uiso       1.00
      C129          C  0.1903500  0.7399000  0.2130000    0.00000       Uiso       1.00
      C130          C  0.2164300  0.7234800  0.1626200    0.00000       Uiso       1.00
      C131          C  0.2495200  0.7424900 -0.0463200    0.00000       Uiso       1.00
      C132          C  0.2558300  0.7779600 -0.2038000    0.00000       Uiso       1.00
      C133          C  0.2287500  0.7934800 -0.1622900    0.00000       Uiso       1.00
      N134          N  0.2786800  0.7281700 -0.0871900    0.00000       Uiso       1.00
      C135          C  0.1629600  0.3493100  0.0920500    0.00000       Uiso       1.00
      C136          C  0.1438500  0.3070200  0.1553300    0.00000       Uiso       1.00
      C137          C  0.1671600  0.2888400  0.2479800    0.00000       Uiso       1.00
      C138          C  0.2107500  0.3138900  0.2757100    0.00000       Uiso       1.00
      C139          C  0.2304600  0.3563100  0.1934000    0.00000       Uiso       1.00
      C140          C  0.2064000  0.3748900  0.1079900    0.00000       Uiso       1.00
      C141          C  0.1451600  0.2435200  0.3094300    0.00000       Uiso       1.00
      O142          O  0.2336300  0.2984100  0.4274900    0.00000       Uiso       1.00
      O143          O  0.2737300  0.3799000  0.2193000    0.00000       Uiso       1.00
      C144          C  0.2953400  0.3922600 -0.0667900    0.00000       Uiso       1.00
      C145          C  0.1110600  0.2254900  0.5107200    0.00000       Uiso       1.00
      C146          C  0.0884700  0.1823600  0.5522400    0.00000       Uiso       1.00
      C147          C  0.0997600  0.1565400  0.3925800    0.00000       Uiso       1.00
      C148          C  0.1338300  0.1746100  0.1932900    0.00000       Uiso       1.00
      C149          C  0.1556500  0.2175400  0.1460600    0.00000       Uiso       1.00
      C150          C  0.2548900  0.2838700  0.2345900    0.00000       Uiso       1.00
      C151          C  0.2993800  0.2999500  0.3446900    0.00000       Uiso       1.00
      O152          O  0.3237300  0.3431400  0.2892100    0.00000       Uiso       1.00
      C153          C  0.3624800  0.3529700  0.1609600    0.00000       Uiso       1.00
      C154          C  0.3874900  0.3992600  0.0856400    0.00000       Uiso       1.00
      O155          O  0.3670800  0.4101100 -0.1396900    0.00000       Uiso       1.00
      C156          C  0.3412400  0.4240100 -0.0088500    0.00000       Uiso       1.00
      C157          C  0.0434100  0.0240600  0.5262900    0.00000       Uiso       1.00
      C158          C  0.0194400  0.0437100  0.5247800    0.00000       Uiso       1.00
      C159          C  0.0391700  0.0894600  0.5109500    0.00000       Uiso       1.00
      N160          N  0.0777000  0.1121200  0.4265500    0.00000       Uiso       1.00
      H161          H  0.3541500  0.7414200 -0.0701600    0.00000       Uiso       1.00
      H162          H  0.2382700  0.6655900 -0.0096500    0.00000       Uiso       1.00
      H163          H  0.1671200  0.7257400  0.3893200    0.00000       Uiso       1.00
      H164          H  0.2118500  0.6971600  0.2987900    0.00000       Uiso       1.00
      H165          H  0.2813300  0.7931200 -0.3646900    0.00000       Uiso       1.00
      H166          H  0.2337400  0.8198900 -0.2991000    0.00000       Uiso       1.00
      H167          H  0.1431700  0.3620300  0.0365900    0.00000       Uiso       1.00
      H168          H  0.1103600  0.2883600  0.1352900    0.00000       Uiso       1.00
      H169          H  0.2820200  0.4067400 -0.2158000    0.00000       Uiso       1.00
      H170          H  0.2920700  0.3645300 -0.1888500    0.00000       Uiso       1.00
      H171          H  0.1019400  0.2448300  0.6358800    0.00000       Uiso       1.00
      H172          H  0.0629100  0.1695500  0.7134600    0.00000       Uiso       1.00
      H173          H  0.1424500  0.1551200  0.0647500    0.00000       Uiso       1.00
      H174          H  0.1795700  0.2302300 -0.0282500    0.00000       Uiso       1.00
      H175          H  0.2548900  0.2921900 -0.0101500    0.00000       Uiso       1.00
      H176          H  0.2387600  0.2495100  0.2523200    0.00000       Uiso       1.00
      H177          H  0.3110700  0.2809800  0.2284800    0.00000       Uiso       1.00
      H178          H  0.2992200  0.2942200  0.5946000    0.00000       Uiso       1.00
      H179          H  0.3582600  0.3354900 -0.0563500    0.00000       Uiso       1.00
      H180          H  0.3805600  0.3454400  0.3268500    0.00000       Uiso       1.00
      H181          H  0.4175900  0.4054600 -0.0135200    0.00000       Uiso       1.00
      H182          H  0.3958200  0.4184700  0.2976900    0.00000       Uiso       1.00
      H183          H  0.3465800  0.4318100  0.2402100    0.00000       Uiso       1.00
      H184          H  0.3486500  0.4535900 -0.1244600    0.00000       Uiso       1.00
      H185          H  0.0770200  0.0425800  0.5235900    0.00000       Uiso       1.00
      H186          H  0.0201500  0.1034800  0.5504600    0.00000       Uiso       1.00
