data_3
_audit_creation_date              0000-00-00
_audit_creation_method            'LanYouShi'
_symmetry_space_group_name_H-M    'P1'
_cell_length_a                    36.8884010
_cell_length_b                    36.8884010
_cell_length_c                    4.5446000
_cell_angle_alpha                 90.0000000
_cell_angle_beta                  90.0000000
_cell_angle_gamma                 120.0000000
loop_
_atom_site_label
_atom_site_type_symbol
_atom_site_fract_x
_atom_site_fract_y
_atom_site_fract_z
_atom_site_U_iso_or_equiv
_atom_site_adp_type
_atom_site_occupancy
        C1          C  0.2913200  0.6349300 -0.2717600    0.00000       Uiso       1.00
        C2          C  0.3013500  0.6769600 -0.2702000    0.00000       Uiso       1.00
        C3          C  0.2674600  0.6869800 -0.2399700    0.00000       Uiso       1.00
        C4          C  0.5781900  0.8092900 -0.0608700    0.00000       Uiso       1.00
        C5          C  0.7550800  0.9055500  0.2135400    0.00000       Uiso       1.00
        C6          C  0.7735500  0.8911700  0.4193500    0.00000       Uiso       1.00
        C7          C  0.8170600  0.9110300  0.4485200    0.00000       Uiso       1.00
        C8          C  0.8430200  0.9461600  0.2750900    0.00000       Uiso       1.00
        C9          C  0.8247600  0.9611000  0.0752900    0.00000       Uiso       1.00
       C10          C  0.7813600  0.9405000  0.0398800    0.00000       Uiso       1.00
       C11          C  0.5465400  0.8127400  0.0849600    0.00000       Uiso       1.00
       C12          C  0.5045000  0.7862500  0.0136100    0.00000       Uiso       1.00
       C13          C  0.4932200  0.7549400 -0.2009200    0.00000       Uiso       1.00
       C14          C  0.5246300  0.7505700 -0.3405100    0.00000       Uiso       1.00
       C15          C  0.5667800  0.7778100 -0.2742300    0.00000       Uiso       1.00
       N16          N  0.4502000  0.7249000 -0.2600400    0.00000       Uiso       1.00
       C17          C  0.9559600  0.9764900  0.3947400    0.00000       Uiso       1.00
       C18          C  0.9795500  0.9562300  0.3960500    0.00000       Uiso       1.00
       C19          C  0.9098700  0.9512800  0.3846600    0.00000       Uiso       1.00
       N20          N  0.8878000  0.9679300  0.3001500    0.00000       Uiso       1.00
       O21          O  0.6428600  0.9862300 -0.1259900    0.00000       Uiso       1.00
       O22          O  0.6211200  0.8998600 -0.0608100    0.00000       Uiso       1.00
       O23          O  0.7045500  0.9474000  0.1148800    0.00000       Uiso       1.00
       O24          O  0.7579500  0.0332700  0.1289500    0.00000       Uiso       1.00
       O25          O  0.7112400  0.0615400 -0.1353000    0.00000       Uiso       1.00
       C26          C  0.7388800  0.0882100  0.0833300    0.00000       Uiso       1.00
       C27          C  0.7732900  0.0770500  0.1365000    0.00000       Uiso       1.00
       C28          C  0.7320000  0.0132100  0.3739000    0.00000       Uiso       1.00
       C29          C  0.7216000  0.9678300  0.3892400    0.00000       Uiso       1.00
       C30          C  0.6386300  0.0190700 -0.2516100    0.00000       Uiso       1.00
       C31          C  0.6725700  0.0608200 -0.1277100    0.00000       Uiso       1.00
       C32          C  0.6047600  0.9551900 -0.0038600    0.00000       Uiso       1.00
       C33          C  0.6121500  0.9229400  0.1523300    0.00000       Uiso       1.00
       C34          C  0.6854400  0.9035200  0.1196200    0.00000       Uiso       1.00
       C35          C  0.6424400  0.8797400  0.0436300    0.00000       Uiso       1.00
       C36          C  0.6226700  0.8356200  0.0277400    0.00000       Uiso       1.00
       C37          C  0.6455300  0.8158100  0.0954100    0.00000       Uiso       1.00
       C38          C  0.6877800  0.8389600  0.1649700    0.00000       Uiso       1.00
       C39          C  0.7087300  0.8828600  0.1725700    0.00000       Uiso       1.00
       H40          H  0.2587600  0.6104900 -0.2631400    0.00000       Uiso       1.00
       H41          H  0.2360300  0.6617700 -0.1937400    0.00000       Uiso       1.00
       H42          H  0.7543000  0.8648100  0.5608500    0.00000       Uiso       1.00
       H43          H  0.8301500  0.8995600  0.6122600    0.00000       Uiso       1.00
       H44          H  0.8443400  0.9881600 -0.0596400    0.00000       Uiso       1.00
       H45          H  0.7684200  0.9519100 -0.1237900    0.00000       Uiso       1.00
       H46          H  0.5540200  0.8339800  0.2673700    0.00000       Uiso       1.00
       H47          H  0.4808400  0.7888000  0.1377100    0.00000       Uiso       1.00
       H48          H  0.5164000  0.7261000 -0.5021600    0.00000       Uiso       1.00
       H49          H  0.5905000  0.7739300 -0.3865700    0.00000       Uiso       1.00
       H50          H  0.9636000  0.9223200  0.3943700    0.00000       Uiso       1.00
       H51          H  0.8949500  0.9180400  0.4295700    0.00000       Uiso       1.00
       H52          H  0.7230800  0.0852500  0.2978800    0.00000       Uiso       1.00
       H53          H  0.7534100  0.1213200  0.0098100    0.00000       Uiso       1.00
       H54          H  0.7967600  0.0914800 -0.0424400    0.00000       Uiso       1.00
       H55          H  0.7901700  0.0912700  0.3457200    0.00000       Uiso       1.00
       H56          H  0.7020900  0.0133300  0.3542600    0.00000       Uiso       1.00
       H57          H  0.7479500  0.0286100  0.5818300    0.00000       Uiso       1.00
       H58          H  0.7506200  0.9676100  0.4430800    0.00000       Uiso       1.00
       H59          H  0.6985500  0.9520500  0.5685400    0.00000       Uiso       1.00
       H60          H  0.6074900  0.0165600 -0.2168200    0.00000       Uiso       1.00
       H61          H  0.6431600  0.0188500 -0.4922700    0.00000       Uiso       1.00
       H62          H  0.6747300  0.0867800 -0.2647400    0.00000       Uiso       1.00
       H63          H  0.6626600  0.0638700  0.0978800    0.00000       Uiso       1.00
       H64          H  0.5808900  0.9394100 -0.1796900    0.00000       Uiso       1.00
       H65          H  0.5928000  0.9689800  0.1612900    0.00000       Uiso       1.00
       H66          H  0.6376400  0.9391700  0.3147500    0.00000       Uiso       1.00
       H67          H  0.5833300  0.9016400  0.2769700    0.00000       Uiso       1.00
       H68          H  0.6307100  0.7819900  0.0887100    0.00000       Uiso       1.00
       H69          H  0.7045400  0.8222300  0.2012500    0.00000       Uiso       1.00
       C70          C  0.3650700  0.6563900 -0.2717600    0.00000       Uiso       1.00
       C71          C  0.3230400  0.6243900 -0.2702000    0.00000       Uiso       1.00
       C72          C  0.3130200  0.5804800 -0.2399700    0.00000       Uiso       1.00
       C73          C  0.1907100  0.7689000 -0.0608700    0.00000       Uiso       1.00
       C74          C  0.0944500  0.8495300  0.2135400    0.00000       Uiso       1.00
       C75          C  0.1088300  0.8823800  0.4193500    0.00000       Uiso       1.00
       C76          C  0.0889700  0.9060300  0.4485200    0.00000       Uiso       1.00
       C77          C  0.0538400  0.8968600  0.2750900    0.00000       Uiso       1.00
       C78          C  0.0389000  0.8636600  0.0752900    0.00000       Uiso       1.00
       C79          C  0.0595000  0.8408600  0.0398800    0.00000       Uiso       1.00
       C80          C  0.1872600  0.7338000  0.0849600    0.00000       Uiso       1.00
       C81          C  0.2137500  0.7182500  0.0136100    0.00000       Uiso       1.00
       C82          C  0.2450600  0.7382800 -0.2009200    0.00000       Uiso       1.00
       C83          C  0.2494300  0.7740600 -0.3405100    0.00000       Uiso       1.00
       C84          C  0.2221900  0.7889700 -0.2742300    0.00000       Uiso       1.00
       N85          N  0.2751000  0.7253000 -0.2600400    0.00000       Uiso       1.00
       C86          C  0.0235100  0.9794700  0.3947400    0.00000       Uiso       1.00
       C87          C  0.0437700  0.0233200  0.3960500    0.00000       Uiso       1.00
       C88          C  0.0487200  0.9585900  0.3846600    0.00000       Uiso       1.00
       N89          N  0.0320700  0.9198700  0.3001500    0.00000       Uiso       1.00
       O90          O  0.0137700  0.6566300 -0.1259900    0.00000       Uiso       1.00
       O91          O  0.1001400  0.7212600 -0.0608100    0.00000       Uiso       1.00
       O92          O  0.0526000  0.7571500  0.1148800    0.00000       Uiso       1.00
       O93          O  0.9667300  0.7246800  0.1289500    0.00000       Uiso       1.00
       O94          O  0.9384600  0.6497000 -0.1353000    0.00000       Uiso       1.00
       C95          C  0.9117900  0.6506700  0.0833300    0.00000       Uiso       1.00
       C96          C  0.9229500  0.6962400  0.1365000    0.00000       Uiso       1.00
       C97          C  0.9867900  0.7187900  0.3739000    0.00000       Uiso       1.00
       C98          C  0.0321700  0.7537700  0.3892400    0.00000       Uiso       1.00
       C99          C  0.9809300  0.6195600 -0.2516100    0.00000       Uiso       1.00
      C100          C  0.9391800  0.6117500 -0.1277100    0.00000       Uiso       1.00
      C101          C  0.0448100  0.6495700 -0.0038600    0.00000       Uiso       1.00
      C102          C  0.0770600  0.6892100  0.1523300    0.00000       Uiso       1.00
      C103          C  0.0964800  0.7819200  0.1196200    0.00000       Uiso       1.00
      C104          C  0.1202600  0.7627000  0.0436300    0.00000       Uiso       1.00
      C105          C  0.1643800  0.7870500  0.0277400    0.00000       Uiso       1.00
      C106          C  0.1841900  0.8297200  0.0954100    0.00000       Uiso       1.00
      C107          C  0.1610400  0.8488200  0.1649700    0.00000       Uiso       1.00
      C108          C  0.1171400  0.8258700  0.1725700    0.00000       Uiso       1.00
      H109          H  0.3895100  0.6482700 -0.2631400    0.00000       Uiso       1.00
      H110          H  0.3382300  0.5742600 -0.1937400    0.00000       Uiso       1.00
      H111          H  0.1351900  0.8894900  0.5608500    0.00000       Uiso       1.00
      H112          H  0.1004400  0.9305900  0.6122600    0.00000       Uiso       1.00
      H113          H  0.0118400  0.8561800 -0.0596400    0.00000       Uiso       1.00
      H114          H  0.0480900  0.8165100 -0.1237900    0.00000       Uiso       1.00
      H115          H  0.1660200  0.7200400  0.2673700    0.00000       Uiso       1.00
      H116          H  0.2112000  0.6920400  0.1377100    0.00000       Uiso       1.00
      H117          H  0.2739000  0.7903000 -0.5021600    0.00000       Uiso       1.00
      H118          H  0.2260700  0.8165700 -0.3865700    0.00000       Uiso       1.00
      H119          H  0.0776800  0.0412800  0.3943700    0.00000       Uiso       1.00
      H120          H  0.0819600  0.9769100  0.4295700    0.00000       Uiso       1.00
      H121          H  0.9147500  0.6378300  0.2978800    0.00000       Uiso       1.00
      H122          H  0.8786800  0.6320900  0.0098100    0.00000       Uiso       1.00
      H123          H  0.9085200  0.7052800 -0.0424400    0.00000       Uiso       1.00
      H124          H  0.9087300  0.6989000  0.3457200    0.00000       Uiso       1.00
      H125          H  0.9866700  0.6887600  0.3542600    0.00000       Uiso       1.00
      H126          H  0.9713900  0.7193400  0.5818300    0.00000       Uiso       1.00
      H127          H  0.0323900  0.7830100  0.4430800    0.00000       Uiso       1.00
      H128          H  0.0479500  0.7465000  0.5685400    0.00000       Uiso       1.00
      H129          H  0.9834400  0.5909300 -0.2168200    0.00000       Uiso       1.00
      H130          H  0.9811500  0.6243100 -0.4922700    0.00000       Uiso       1.00
      H131          H  0.9132200  0.5879500 -0.2647400    0.00000       Uiso       1.00
      H132          H  0.9361300  0.5987900  0.0978800    0.00000       Uiso       1.00
      H133          H  0.0605900  0.6414800 -0.1796900    0.00000       Uiso       1.00
      H134          H  0.0310200  0.6238200  0.1612900    0.00000       Uiso       1.00
      H135          H  0.0608300  0.6984700  0.3147500    0.00000       Uiso       1.00
      H136          H  0.0983600  0.6816900  0.2769700    0.00000       Uiso       1.00
      H137          H  0.2180100  0.8487200  0.0887100    0.00000       Uiso       1.00
      H138          H  0.1777700  0.8823100  0.2012500    0.00000       Uiso       1.00
      C139          C  0.3436100  0.7086800 -0.2717600    0.00000       Uiso       1.00
      C140          C  0.3756100  0.6986500 -0.2702000    0.00000       Uiso       1.00
      C141          C  0.4195200  0.7325400 -0.2399700    0.00000       Uiso       1.00
      C142          C  0.2311000  0.4218100 -0.0608700    0.00000       Uiso       1.00
      C143          C  0.1504700  0.2449200  0.2135400    0.00000       Uiso       1.00
      C144          C  0.1176200  0.2264500  0.4193500    0.00000       Uiso       1.00
      C145          C  0.0939700  0.1829400  0.4485200    0.00000       Uiso       1.00
      C146          C  0.1031400  0.1569800  0.2750900    0.00000       Uiso       1.00
      C147          C  0.1363400  0.1752400  0.0752900    0.00000       Uiso       1.00
      C148          C  0.1591400  0.2186400  0.0398800    0.00000       Uiso       1.00
      C149          C  0.2662000  0.4534600  0.0849600    0.00000       Uiso       1.00
      C150          C  0.2817500  0.4955000  0.0136100    0.00000       Uiso       1.00
      C151          C  0.2617200  0.5067800 -0.2009200    0.00000       Uiso       1.00
      C152          C  0.2259400  0.4753700 -0.3405100    0.00000       Uiso       1.00
      C153          C  0.2110300  0.4332200 -0.2742300    0.00000       Uiso       1.00
      N154          N  0.2747000  0.5498000 -0.2600400    0.00000       Uiso       1.00
      C155          C  0.0205300  0.0440400  0.3947400    0.00000       Uiso       1.00
      C156          C  0.9766800  0.0204500  0.3960500    0.00000       Uiso       1.00
      C157          C  0.0414100  0.0901300  0.3846600    0.00000       Uiso       1.00
      N158          N  0.0801300  0.1122000  0.3001500    0.00000       Uiso       1.00
      O159          O  0.3433700  0.3571400 -0.1259900    0.00000       Uiso       1.00
      O160          O  0.2787400  0.3788800 -0.0608100    0.00000       Uiso       1.00
      O161          O  0.2428500  0.2954500  0.1148800    0.00000       Uiso       1.00
      O162          O  0.2753200  0.2420500  0.1289500    0.00000       Uiso       1.00
      O163          O  0.3503000  0.2887600 -0.1353000    0.00000       Uiso       1.00
      C164          C  0.3493300  0.2611200  0.0833300    0.00000       Uiso       1.00
      C165          C  0.3037600  0.2267100  0.1365000    0.00000       Uiso       1.00
      C166          C  0.2812100  0.2680000  0.3739000    0.00000       Uiso       1.00
      C167          C  0.2462300  0.2784000  0.3892400    0.00000       Uiso       1.00
      C168          C  0.3804400  0.3613700 -0.2516100    0.00000       Uiso       1.00
      C169          C  0.3882500  0.3274300 -0.1277100    0.00000       Uiso       1.00
      C170          C  0.3504300  0.3952400 -0.0038600    0.00000       Uiso       1.00
      C171          C  0.3107900  0.3878500  0.1523300    0.00000       Uiso       1.00
      C172          C  0.2180800  0.3145600  0.1196200    0.00000       Uiso       1.00
      C173          C  0.2373000  0.3575600  0.0436300    0.00000       Uiso       1.00
      C174          C  0.2129500  0.3773300  0.0277400    0.00000       Uiso       1.00
      C175          C  0.1702800  0.3544700  0.0954100    0.00000       Uiso       1.00
      C176          C  0.1511800  0.3122200  0.1649700    0.00000       Uiso       1.00
      C177          C  0.1741300  0.2912700  0.1725700    0.00000       Uiso       1.00
      H178          H  0.3517300  0.7412400 -0.2631400    0.00000       Uiso       1.00
      H179          H  0.4257400  0.7639700 -0.1937400    0.00000       Uiso       1.00
      H180          H  0.1105100  0.2457000  0.5608500    0.00000       Uiso       1.00
      H181          H  0.0694100  0.1698500  0.6122600    0.00000       Uiso       1.00
      H182          H  0.1438200  0.1556600 -0.0596400    0.00000       Uiso       1.00
      H183          H  0.1834900  0.2315800 -0.1237900    0.00000       Uiso       1.00
      H184          H  0.2799600  0.4459800  0.2673700    0.00000       Uiso       1.00
      H185          H  0.3079600  0.5191600  0.1377100    0.00000       Uiso       1.00
      H186          H  0.2097000  0.4836000 -0.5021600    0.00000       Uiso       1.00
      H187          H  0.1834300  0.4095000 -0.3865700    0.00000       Uiso       1.00
      H188          H  0.9587200  0.0364000  0.3943700    0.00000       Uiso       1.00
      H189          H  0.0230900  0.1050500  0.4295700    0.00000       Uiso       1.00
      H190          H  0.3621700  0.2769200  0.2978800    0.00000       Uiso       1.00
      H191          H  0.3679100  0.2465900  0.0098100    0.00000       Uiso       1.00
      H192          H  0.2947200  0.2032400 -0.0424400    0.00000       Uiso       1.00
      H193          H  0.3011000  0.2098300  0.3457200    0.00000       Uiso       1.00
      H194          H  0.3112400  0.2979100  0.3542600    0.00000       Uiso       1.00
      H195          H  0.2806600  0.2520500  0.5818300    0.00000       Uiso       1.00
      H196          H  0.2169900  0.2493800  0.4430800    0.00000       Uiso       1.00
      H197          H  0.2535000  0.3014500  0.5685400    0.00000       Uiso       1.00
      H198          H  0.4090700  0.3925100 -0.2168200    0.00000       Uiso       1.00
      H199          H  0.3756900  0.3568400 -0.4922700    0.00000       Uiso       1.00
      H200          H  0.4120500  0.3252700 -0.2647400    0.00000       Uiso       1.00
      H201          H  0.4012100  0.3373400  0.0978800    0.00000       Uiso       1.00
      H202          H  0.3585200  0.4191100 -0.1796900    0.00000       Uiso       1.00
      H203          H  0.3761800  0.4072000  0.1612900    0.00000       Uiso       1.00
      H204          H  0.3015300  0.3623600  0.3147500    0.00000       Uiso       1.00
      H205          H  0.3183100  0.4166700  0.2769700    0.00000       Uiso       1.00
      H206          H  0.1512800  0.3692900  0.0887100    0.00000       Uiso       1.00
      H207          H  0.1176900  0.2954600  0.2012500    0.00000       Uiso       1.00
