data_4
_audit_creation_date              0000-00-00
_audit_creation_method            'LanYouShi'
_symmetry_space_group_name_H-M    'P1'
_cell_length_a                    36.7694016
_cell_length_b                    36.7694016
_cell_length_c                    4.2426000
_cell_angle_alpha                 90.0000000
_cell_angle_beta                  90.0000000
_cell_angle_gamma                 120.0000000
loop_
_atom_site_label
_atom_site_type_symbol
_atom_site_fract_x
_atom_site_fract_y
_atom_site_fract_z
_atom_site_U_iso_or_equiv
_atom_site_adp_type
_atom_site_occupancy
        O1          O  0.3659600  0.3043900 -0.0940300    0.00000       Uiso       1.00
        O2          O  0.4341300  0.3890700  0.0226100    0.00000       Uiso       1.00
        O3          O  0.3925400  0.4317000  0.2492400    0.00000       Uiso       1.00
        O4          O  0.2858600  0.3512700  0.0903600    0.00000       Uiso       1.00
        O5          O  0.2201200  0.2761600 -0.0800600    0.00000       Uiso       1.00
        O6          O  0.2769500  0.2425200 -0.1137300    0.00000       Uiso       1.00
        C7          C  0.2354100  0.2205200  0.0058400    0.00000       Uiso       1.00
        C8          C  0.2232800  0.2507200  0.1553400    0.00000       Uiso       1.00
        C9          C  0.2112500  0.3060300  0.0570800    0.00000       Uiso       1.00
       C10          C  0.2481900  0.3502700  0.0073400    0.00000       Uiso       1.00
       C11          C  0.3490600  0.2609800 -0.0399600    0.00000       Uiso       1.00
       C12          C  0.3056700  0.2426900  0.1086900    0.00000       Uiso       1.00
       C13          C  0.4065700  0.3211600 -0.2242800    0.00000       Uiso       1.00
       C14          C  0.4256700  0.3681900 -0.2744200    0.00000       Uiso       1.00
       C15          C  0.4325400  0.4536000  0.1082400    0.00000       Uiso       1.00
       C16          C  0.4545200  0.4330200  0.0066800    0.00000       Uiso       1.00
       C17          C  0.3180100  0.3929100  0.1486500    0.00000       Uiso       1.00
       C18          C  0.3603600  0.3962200  0.0856600    0.00000       Uiso       1.00
       C19          C  0.4979000  0.4572900 -0.0756000    0.00000       Uiso       1.00
       C20          C  0.5172300  0.5013300 -0.0666200    0.00000       Uiso       1.00
       C21          C  0.4950400  0.5211400  0.0188800    0.00000       Uiso       1.00
       C22          C  0.4529100  0.4978100  0.1078500    0.00000       Uiso       1.00
       C23          C  0.6774300  0.3756000 -0.3337500    0.00000       Uiso       1.00
       C24          C  0.6349300  0.3441100 -0.3324000    0.00000       Uiso       1.00
       C25          C  0.6012500  0.3546400 -0.3061500    0.00000       Uiso       1.00
       C26          C  0.5248400  0.4384600 -0.1528900    0.00000       Uiso       1.00
       C27          C  0.5194400  0.4020700 -0.0003000    0.00000       Uiso       1.00
       C28          C  0.5460200  0.3860800 -0.0640100    0.00000       Uiso       1.00
       C29          C  0.5796700  0.4069100 -0.2748900    0.00000       Uiso       1.00
       C30          C  0.5859600  0.4435800 -0.4221300    0.00000       Uiso       1.00
       C31          C  0.5583400  0.4586300 -0.3684300    0.00000       Uiso       1.00
       N32          N  0.6095800  0.3933100 -0.3261700    0.00000       Uiso       1.00
       C33          C  0.4301700  0.5202100  0.1946400    0.00000       Uiso       1.00
       C34          C  0.4487600  0.5553100  0.3951100    0.00000       Uiso       1.00
       C35          C  0.4281300  0.5775700  0.4643500    0.00000       Uiso       1.00
       C36          C  0.3884600  0.5650900  0.3326100    0.00000       Uiso       1.00
       C37          C  0.3696500  0.5297000  0.1375800    0.00000       Uiso       1.00
       C38          C  0.3905200  0.5078100  0.0651900    0.00000       Uiso       1.00
       N39          N  0.3664100  0.5875000  0.3881000    0.00000       Uiso       1.00
       C40          C  0.3574300  0.6466400  0.5044200    0.00000       Uiso       1.00
       C41          C  0.3772100  0.6905800  0.5068300    0.00000       Uiso       1.00
       C42          C  0.3832300  0.6263800  0.4780900    0.00000       Uiso       1.00
       H43          H  0.2299800  0.1954100  0.1784700    0.00000       Uiso       1.00
       H44          H  0.2137800  0.2042600 -0.1940200    0.00000       Uiso       1.00
       H45          H  0.1923800  0.2317500  0.2745400    0.00000       Uiso       1.00
       H46          H  0.2473500  0.2702000  0.3343200    0.00000       Uiso       1.00
       H47          H  0.2035600  0.3012000  0.3138100    0.00000       Uiso       1.00
       H48          H  0.1832500  0.3036300 -0.0622900    0.00000       Uiso       1.00
       H49          H  0.2495300  0.3588300 -0.2454700    0.00000       Uiso       1.00
       H50          H  0.2425400  0.3722800  0.1525300    0.00000       Uiso       1.00
       H51          H  0.3692900  0.2554300  0.1255700    0.00000       Uiso       1.00
       H52          H  0.3461800  0.2440000 -0.2641900    0.00000       Uiso       1.00
       H53          H  0.2961900  0.2102100  0.1872000    0.00000       Uiso       1.00
       H54          H  0.3079100  0.2621000  0.3164800    0.00000       Uiso       1.00
       H55          H  0.4050300  0.3065500 -0.4571100    0.00000       Uiso       1.00
       H56          H  0.4276900  0.3160000 -0.0651700    0.00000       Uiso       1.00
       H57          H  0.4548600  0.3794900 -0.4113600    0.00000       Uiso       1.00
       H58          H  0.4036600  0.3740800 -0.4125100    0.00000       Uiso       1.00
       H59          H  0.3163100  0.4006500  0.3995100    0.00000       Uiso       1.00
       H60          H  0.3155100  0.4163100 -0.0035400    0.00000       Uiso       1.00
       H61          H  0.3592700  0.3672900  0.1737500    0.00000       Uiso       1.00
       H62          H  0.3658000  0.3989700 -0.1726000    0.00000       Uiso       1.00
       H63          H  0.5503100  0.5210500 -0.1175600    0.00000       Uiso       1.00
       H64          H  0.5111200  0.5551400  0.0177000    0.00000       Uiso       1.00
       H65          H  0.6859400  0.4083800 -0.3262200    0.00000       Uiso       1.00
       H66          H  0.5693600  0.3295200 -0.2658900    0.00000       Uiso       1.00
       H67          H  0.4958000  0.3865200  0.1777700    0.00000       Uiso       1.00
       H68          H  0.5414600  0.3587100  0.0647100    0.00000       Uiso       1.00
       H69          H  0.6118900  0.4600900 -0.5844000    0.00000       Uiso       1.00
       H70          H  0.5633800  0.4861600 -0.4973400    0.00000       Uiso       1.00
       H71          H  0.4792400  0.5654500  0.4990700    0.00000       Uiso       1.00
       H72          H  0.4430400  0.6039200  0.6242600    0.00000       Uiso       1.00
       H73          H  0.3392800  0.5199100  0.0326600    0.00000       Uiso       1.00
       H74          H  0.3763700  0.4821100 -0.1011000    0.00000       Uiso       1.00
       H75          H  0.4111900  0.7089800  0.5009200    0.00000       Uiso       1.00
       H76          H  0.4166700  0.6455300  0.5076000    0.00000       Uiso       1.00
       O77          O  0.6956100  0.0615700 -0.0940300    0.00000       Uiso       1.00
       O78          O  0.6109300  0.0450600  0.0226100    0.00000       Uiso       1.00
       O79          O  0.5683000  0.9608400  0.2492400    0.00000       Uiso       1.00
       O80          O  0.6487300  0.9345900  0.0903600    0.00000       Uiso       1.00
       O81          O  0.7238400  0.9439600 -0.0800600    0.00000       Uiso       1.00
       O82          O  0.7574800  0.0344300 -0.1137300    0.00000       Uiso       1.00
       C83          C  0.7794800  0.0148900  0.0058400    0.00000       Uiso       1.00
       C84          C  0.7492800  0.9725600  0.1553400    0.00000       Uiso       1.00
       C85          C  0.6939700  0.9052200  0.0570800    0.00000       Uiso       1.00
       C86          C  0.6497300  0.8979200  0.0073400    0.00000       Uiso       1.00
       C87          C  0.7390200  0.0880800 -0.0399600    0.00000       Uiso       1.00
       C88          C  0.7573100  0.0629800  0.1086900    0.00000       Uiso       1.00
       C89          C  0.6788400  0.0854100 -0.2242800    0.00000       Uiso       1.00
       C90          C  0.6318100  0.0574800 -0.2744200    0.00000       Uiso       1.00
       C91          C  0.5464000  0.9789400  0.1082400    0.00000       Uiso       1.00
       C92          C  0.5669800  0.0215000  0.0066800    0.00000       Uiso       1.00
       C93          C  0.6070900  0.9251000  0.1486500    0.00000       Uiso       1.00
       C94          C  0.6037800  0.9641400  0.0856600    0.00000       Uiso       1.00
       C95          C  0.5427100  0.0406100 -0.0756000    0.00000       Uiso       1.00
       C96          C  0.4986700  0.0159000 -0.0666200    0.00000       Uiso       1.00
       C97          C  0.4788600  0.9739000  0.0188800    0.00000       Uiso       1.00
       C98          C  0.5021900  0.9551000  0.1078500    0.00000       Uiso       1.00
       C99          C  0.6244000  0.3018300 -0.3337500    0.00000       Uiso       1.00
      C100          C  0.6558900  0.2908200 -0.3324000    0.00000       Uiso       1.00
      C101          C  0.6453600  0.2466100 -0.3061500    0.00000       Uiso       1.00
      C102          C  0.5615400  0.0863800 -0.1528900    0.00000       Uiso       1.00
      C103          C  0.5979300  0.1173700 -0.0003000    0.00000       Uiso       1.00
      C104          C  0.6139200  0.1599400 -0.0640100    0.00000       Uiso       1.00
      C105          C  0.5930900  0.1727600 -0.2748900    0.00000       Uiso       1.00
      C106          C  0.5564200  0.1423800 -0.4221300    0.00000       Uiso       1.00
      C107          C  0.5413700  0.0997100 -0.3684300    0.00000       Uiso       1.00
      N108          N  0.6066900  0.2162700 -0.3261700    0.00000       Uiso       1.00
      C109          C  0.4797900  0.9099600  0.1946400    0.00000       Uiso       1.00
      C110          C  0.4446900  0.8934500  0.3951100    0.00000       Uiso       1.00
      C111          C  0.4224300  0.8505600  0.4643500    0.00000       Uiso       1.00
      C112          C  0.4349100  0.8233700  0.3326100    0.00000       Uiso       1.00
      C113          C  0.4703000  0.8399500  0.1375800    0.00000       Uiso       1.00
      C114          C  0.4921900  0.8827100  0.0651900    0.00000       Uiso       1.00
      N115          N  0.4125000  0.7789100  0.3881000    0.00000       Uiso       1.00
      C116          C  0.3533600  0.7107900  0.5044200    0.00000       Uiso       1.00
      C117          C  0.3094200  0.6866300  0.5068300    0.00000       Uiso       1.00
      C118          C  0.3736200  0.7568500  0.4780900    0.00000       Uiso       1.00
      H119          H  0.8045900  0.0345700  0.1784700    0.00000       Uiso       1.00
      H120          H  0.7957400  0.0095200 -0.1940200    0.00000       Uiso       1.00
      H121          H  0.7682500  0.9606300  0.2745400    0.00000       Uiso       1.00
      H122          H  0.7298000  0.9771500  0.3343200    0.00000       Uiso       1.00
      H123          H  0.6988000  0.9023600  0.3138100    0.00000       Uiso       1.00
      H124          H  0.6963700  0.8796200 -0.0622900    0.00000       Uiso       1.00
      H125          H  0.6411700  0.8907000 -0.2454700    0.00000       Uiso       1.00
      H126          H  0.6277200  0.8702600  0.1525300    0.00000       Uiso       1.00
      H127          H  0.7445700  0.1138600  0.1255700    0.00000       Uiso       1.00
      H128          H  0.7560000  0.1021800 -0.2641900    0.00000       Uiso       1.00
      H129          H  0.7897900  0.0859800  0.1872000    0.00000       Uiso       1.00
      H130          H  0.7379000  0.0458100  0.3164800    0.00000       Uiso       1.00
      H131          H  0.6934500  0.0984800 -0.4571100    0.00000       Uiso       1.00
      H132          H  0.6840000  0.1116900 -0.0651700    0.00000       Uiso       1.00
      H133          H  0.6205100  0.0753700 -0.4113600    0.00000       Uiso       1.00
      H134          H  0.6259200  0.0295800 -0.4125100    0.00000       Uiso       1.00
      H135          H  0.5993500  0.9156600  0.3995100    0.00000       Uiso       1.00
      H136          H  0.5836900  0.8992000 -0.0035400    0.00000       Uiso       1.00
      H137          H  0.6327100  0.9919800  0.1737500    0.00000       Uiso       1.00
      H138          H  0.6010300  0.9668300 -0.1726000    0.00000       Uiso       1.00
      H139          H  0.4789500  0.0292600 -0.1175600    0.00000       Uiso       1.00
      H140          H  0.4448600  0.9559800  0.0177000    0.00000       Uiso       1.00
      H141          H  0.5916200  0.2775600 -0.3262200    0.00000       Uiso       1.00
      H142          H  0.6704800  0.2398400 -0.2658900    0.00000       Uiso       1.00
      H143          H  0.6134800  0.1092800  0.1777700    0.00000       Uiso       1.00
      H144          H  0.6412900  0.1827500  0.0647100    0.00000       Uiso       1.00
      H145          H  0.5399100  0.1518000 -0.5844000    0.00000       Uiso       1.00
      H146          H  0.5138400  0.0772200 -0.4973400    0.00000       Uiso       1.00
      H147          H  0.4345500  0.9137900  0.4990700    0.00000       Uiso       1.00
      H148          H  0.3960800  0.8391200  0.6242600    0.00000       Uiso       1.00
      H149          H  0.4800900  0.8193700  0.0326600    0.00000       Uiso       1.00
      H150          H  0.5178900  0.8942600 -0.1011000    0.00000       Uiso       1.00
      H151          H  0.2910200  0.7022100  0.5009200    0.00000       Uiso       1.00
      H152          H  0.3544700  0.7711400  0.5076000    0.00000       Uiso       1.00
      O153          O  0.9384301  0.6340400 -0.0940300    0.00000       Uiso       1.00
      O154          O  0.9549400  0.5658700  0.0226100    0.00000       Uiso       1.00
      O155          O  0.0391600  0.6074600  0.2492400    0.00000       Uiso       1.00
      O156          O  0.0654100  0.7141400  0.0903600    0.00000       Uiso       1.00
      O157          O  0.0560400  0.7798800 -0.0800600    0.00000       Uiso       1.00
      O158          O  0.9655700  0.7230500 -0.1137300    0.00000       Uiso       1.00
      C159          C  0.9851100  0.7645900  0.0058400    0.00000       Uiso       1.00
      C160          C  0.0274400  0.7767200  0.1553400    0.00000       Uiso       1.00
      C161          C  0.0947800  0.7887500  0.0570800    0.00000       Uiso       1.00
      C162          C  0.1020800  0.7518100  0.0073400    0.00000       Uiso       1.00
      C163          C  0.9119200  0.6509400 -0.0399600    0.00000       Uiso       1.00
      C164          C  0.9370200  0.6943300  0.1086900    0.00000       Uiso       1.00
      C165          C  0.9145900  0.5934300 -0.2242800    0.00000       Uiso       1.00
      C166          C  0.9425200  0.5743300 -0.2744200    0.00000       Uiso       1.00
      C167          C  0.0210600  0.5674600  0.1082400    0.00000       Uiso       1.00
      C168          C  0.9785000  0.5454800  0.0066800    0.00000       Uiso       1.00
      C169          C  0.0749000  0.6819900  0.1486500    0.00000       Uiso       1.00
      C170          C  0.0358600  0.6396400  0.0856600    0.00000       Uiso       1.00
      C171          C  0.9593900  0.5021000 -0.0756000    0.00000       Uiso       1.00
      C172          C  0.9841000  0.4827700 -0.0666200    0.00000       Uiso       1.00
      C173          C  0.0261000  0.5049600  0.0188800    0.00000       Uiso       1.00
      C174          C  0.0449000  0.5470900  0.1078500    0.00000       Uiso       1.00
      C175          C  0.6981700  0.3225700 -0.3337500    0.00000       Uiso       1.00
      C176          C  0.7091800  0.3650700 -0.3324000    0.00000       Uiso       1.00
      C177          C  0.7533900  0.3987500 -0.3061500    0.00000       Uiso       1.00
      C178          C  0.9136200  0.4751600 -0.1528900    0.00000       Uiso       1.00
      C179          C  0.8826300  0.4805600 -0.0003000    0.00000       Uiso       1.00
      C180          C  0.8400600  0.4539800 -0.0640100    0.00000       Uiso       1.00
      C181          C  0.8272400  0.4203300 -0.2748900    0.00000       Uiso       1.00
      C182          C  0.8576200  0.4140400 -0.4221300    0.00000       Uiso       1.00
      C183          C  0.9002900  0.4416600 -0.3684300    0.00000       Uiso       1.00
      N184          N  0.7837300  0.3904200 -0.3261700    0.00000       Uiso       1.00
      C185          C  0.0900400  0.5698300  0.1946400    0.00000       Uiso       1.00
      C186          C  0.1065500  0.5512400  0.3951100    0.00000       Uiso       1.00
      C187          C  0.1494400  0.5718700  0.4643500    0.00000       Uiso       1.00
      C188          C  0.1766300  0.6115400  0.3326100    0.00000       Uiso       1.00
      C189          C  0.1600500  0.6303500  0.1375800    0.00000       Uiso       1.00
      C190          C  0.1172900  0.6094800  0.0651900    0.00000       Uiso       1.00
      N191          N  0.2210900  0.6335900  0.3881000    0.00000       Uiso       1.00
      C192          C  0.2892100  0.6425700  0.5044200    0.00000       Uiso       1.00
      C193          C  0.3133700  0.6227900  0.5068300    0.00000       Uiso       1.00
      C194          C  0.2431500  0.6167700  0.4780900    0.00000       Uiso       1.00
      H195          H  0.9654300  0.7700200  0.1784700    0.00000       Uiso       1.00
      H196          H  0.9904800  0.7862200 -0.1940200    0.00000       Uiso       1.00
      H197          H  0.0393700  0.8076200  0.2745400    0.00000       Uiso       1.00
      H198          H  0.0228500  0.7526500  0.3343200    0.00000       Uiso       1.00
      H199          H  0.0976400  0.7964400  0.3138100    0.00000       Uiso       1.00
      H200          H  0.1203800  0.8167500 -0.0622900    0.00000       Uiso       1.00
      H201          H  0.1093000  0.7504700 -0.2454700    0.00000       Uiso       1.00
      H202          H  0.1297400  0.7574600  0.1525300    0.00000       Uiso       1.00
      H203          H  0.8861400  0.6307100  0.1255700    0.00000       Uiso       1.00
      H204          H  0.8978200  0.6538200 -0.2641900    0.00000       Uiso       1.00
      H205          H  0.9140200  0.7038100  0.1872000    0.00000       Uiso       1.00
      H206          H  0.9541900  0.6920900  0.3164800    0.00000       Uiso       1.00
      H207          H  0.9015200  0.5949700 -0.4571100    0.00000       Uiso       1.00
      H208          H  0.8883100  0.5723100 -0.0651700    0.00000       Uiso       1.00
      H209          H  0.9246300  0.5451400 -0.4113600    0.00000       Uiso       1.00
      H210          H  0.9704200  0.5963400 -0.4125100    0.00000       Uiso       1.00
      H211          H  0.0843400  0.6836900  0.3995100    0.00000       Uiso       1.00
      H212          H  0.1008000  0.6844900 -0.0035400    0.00000       Uiso       1.00
      H213          H  0.0080200  0.6407300  0.1737500    0.00000       Uiso       1.00
      H214          H  0.0331700  0.6342000 -0.1726000    0.00000       Uiso       1.00
      H215          H  0.9707400  0.4496900 -0.1175600    0.00000       Uiso       1.00
      H216          H  0.0440200  0.4888800  0.0177000    0.00000       Uiso       1.00
      H217          H  0.7224400  0.3140600 -0.3262200    0.00000       Uiso       1.00
      H218          H  0.7601600  0.4306400 -0.2658900    0.00000       Uiso       1.00
      H219          H  0.8907200  0.5042000  0.1777700    0.00000       Uiso       1.00
      H220          H  0.8172500  0.4585400  0.0647100    0.00000       Uiso       1.00
      H221          H  0.8482000  0.3881100 -0.5844000    0.00000       Uiso       1.00
      H222          H  0.9227800  0.4366200 -0.4973400    0.00000       Uiso       1.00
      H223          H  0.0862100  0.5207600  0.4990700    0.00000       Uiso       1.00
      H224          H  0.1608800  0.5569600  0.6242600    0.00000       Uiso       1.00
      H225          H  0.1806300  0.6607200  0.0326600    0.00000       Uiso       1.00
      H226          H  0.1057400  0.6236300 -0.1011000    0.00000       Uiso       1.00
      H227          H  0.2977900  0.5888100  0.5009200    0.00000       Uiso       1.00
      H228          H  0.2288600  0.5833300  0.5076000    0.00000       Uiso       1.00
