data_5
_audit_creation_date              0000-00-00
_audit_creation_method            'LanYouShi'
_symmetry_space_group_name_H-M    'P1'
_cell_length_a                    18.5000000
_cell_length_b                    26.3299999
_cell_length_c                    7.8010001
_cell_angle_alpha                 90.0000000
_cell_angle_beta                  96.0879974
_cell_angle_gamma                 90.0000000
loop_
_atom_site_label
_atom_site_type_symbol
_atom_site_fract_x
_atom_site_fract_y
_atom_site_fract_z
_atom_site_U_iso_or_equiv
_atom_site_adp_type
_atom_site_occupancy
        C1          C  0.5773000  0.0458000  0.9459000    0.00000       Uiso       1.00
        C2          C  0.3501000  0.9526000  0.0993000    0.00000       Uiso       1.00
        C3          C  0.3125000  0.0981000  0.1327000    0.00000       Uiso       1.00
        C4          C  0.2485000  0.1008000  0.2184000    0.00000       Uiso       1.00
        C5          C  0.2470000  0.1942000  0.2101000    0.00000       Uiso       1.00
        C6          C  0.3412000  0.1454000  0.0850000    0.00000       Uiso       1.00
        C7          C  0.2160000  0.1477000  0.2544000    0.00000       Uiso       1.00
        N8          N  0.2177000  0.2437000  0.2506000    0.00000       Uiso       1.00
        C9          C  0.3104000  0.1920000  0.1272000    0.00000       Uiso       1.00
       C10          C  0.0312000  0.5475000  0.4525000    0.00000       Uiso       1.00
       C11          C  0.9358000  0.5965000  0.6101000    0.00000       Uiso       1.00
       C12          C  0.8600000  0.6050000  0.5948000    0.00000       Uiso       1.00
       C13          C  0.8309000  0.6528000  0.6353000    0.00000       Uiso       1.00
       C14          C  0.8769000  0.6936000  0.6919000    0.00000       Uiso       1.00
       C15          C  0.9520000  0.6841000  0.7159000    0.00000       Uiso       1.00
       C16          C  0.9806000  0.6363999  0.6794000    0.00000       Uiso       1.00
       C17          C  0.8498000  0.7462000  0.7268000    0.00000       Uiso       1.00
       H18          H  0.5498000  0.0810000  0.9557000    0.00000       Uiso       1.00
       H19          H  0.2239000  0.0669000  0.2641000    0.00000       Uiso       1.00
       H20          H  0.3885000  0.1475000  0.0161000    0.00000       Uiso       1.00
       H21          H  0.1682000  0.1474000  0.3230000    0.00000       Uiso       1.00
       H22          H  0.3360000  0.2270000  0.0928000    0.00000       Uiso       1.00
       H23          H  0.8232000  0.5752000  0.5460000    0.00000       Uiso       1.00
       H24          H  0.7726000  0.6582000  0.6187000    0.00000       Uiso       1.00
       H25          H  0.9893000  0.7140000  0.7626000    0.00000       Uiso       1.00
       H26          H  0.0387000  0.6314000  0.6972000    0.00000       Uiso       1.00
       H27          H  0.8900000  0.7762000  0.7443000    0.00000       Uiso       1.00
       C28          C  0.0773000  0.5458000  0.9459000    0.00000       Uiso       1.00
       C29          C  0.8501000  0.4526000  0.0993000    0.00000       Uiso       1.00
       C30          C  0.8125000  0.5981000  0.1327000    0.00000       Uiso       1.00
       C31          C  0.7485000  0.6008000  0.2184000    0.00000       Uiso       1.00
       C32          C  0.7470000  0.6942000  0.2101000    0.00000       Uiso       1.00
       C33          C  0.8412000  0.6454000  0.0850000    0.00000       Uiso       1.00
       C34          C  0.7160000  0.6477000  0.2544000    0.00000       Uiso       1.00
       N35          N  0.7177000  0.7437000  0.2506000    0.00000       Uiso       1.00
       C36          C  0.8104000  0.6920000  0.1272000    0.00000       Uiso       1.00
       C37          C  0.5312000  0.0475000  0.4525000    0.00000       Uiso       1.00
       C38          C  0.4358000  0.0965000  0.6101000    0.00000       Uiso       1.00
       C39          C  0.3600000  0.1050000  0.5948000    0.00000       Uiso       1.00
       C40          C  0.3309000  0.1528000  0.6353000    0.00000       Uiso       1.00
       C41          C  0.3769000  0.1936000  0.6919000    0.00000       Uiso       1.00
       C42          C  0.4520000  0.1841000  0.7159000    0.00000       Uiso       1.00
       C43          C  0.4806000  0.1364000  0.6794000    0.00000       Uiso       1.00
       C44          C  0.3498000  0.2462000  0.7268000    0.00000       Uiso       1.00
       H45          H  0.0498000  0.5810000  0.9557000    0.00000       Uiso       1.00
       H46          H  0.7239000  0.5669000  0.2641000    0.00000       Uiso       1.00
       H47          H  0.8885000  0.6475000  0.0161000    0.00000       Uiso       1.00
       H48          H  0.6682000  0.6474001  0.3230000    0.00000       Uiso       1.00
       H49          H  0.8360000  0.7270000  0.0928000    0.00000       Uiso       1.00
       H50          H  0.3232000  0.0752000  0.5460000    0.00000       Uiso       1.00
       H51          H  0.2726000  0.1582000  0.6187000    0.00000       Uiso       1.00
       H52          H  0.4893000  0.2140000  0.7626000    0.00000       Uiso       1.00
       H53          H  0.5387000  0.1314000  0.6972000    0.00000       Uiso       1.00
       H54          H  0.3900000  0.2762000  0.7443000    0.00000       Uiso       1.00
       C55          C  0.4227000  0.0458000  0.0541000    0.00000       Uiso       1.00
       C56          C  0.6499000  0.9526000  0.9007000    0.00000       Uiso       1.00
       C57          C  0.6875000  0.0981000  0.8673000    0.00000       Uiso       1.00
       C58          C  0.7515000  0.1008000  0.7816000    0.00000       Uiso       1.00
       C59          C  0.7530000  0.1942000  0.7899000    0.00000       Uiso       1.00
       C60          C  0.6588000  0.1454000  0.9150000    0.00000       Uiso       1.00
       C61          C  0.7840000  0.1477000  0.7456000    0.00000       Uiso       1.00
       N62          N  0.7823000  0.2437000  0.7494000    0.00000       Uiso       1.00
       C63          C  0.6896000  0.1920000  0.8728000    0.00000       Uiso       1.00
       C64          C  0.9688001  0.5475000  0.5475000    0.00000       Uiso       1.00
       C65          C  0.0642000  0.5965000  0.3899000    0.00000       Uiso       1.00
       C66          C  0.1400000  0.6050000  0.4052000    0.00000       Uiso       1.00
       C67          C  0.1691000  0.6528000  0.3647000    0.00000       Uiso       1.00
       C68          C  0.1231000  0.6936000  0.3081000    0.00000       Uiso       1.00
       C69          C  0.0480000  0.6841000  0.2841000    0.00000       Uiso       1.00
       C70          C  0.0194000  0.6363999  0.3206000    0.00000       Uiso       1.00
       C71          C  0.1502000  0.7462000  0.2732000    0.00000       Uiso       1.00
       H72          H  0.4502000  0.0810000  0.0443000    0.00000       Uiso       1.00
       H73          H  0.7761000  0.0669000  0.7359000    0.00000       Uiso       1.00
       H74          H  0.6115000  0.1475000  0.9839000    0.00000       Uiso       1.00
       H75          H  0.8318000  0.1474000  0.6770000    0.00000       Uiso       1.00
       H76          H  0.6640000  0.2270000  0.9072000    0.00000       Uiso       1.00
       H77          H  0.1768000  0.5752000  0.4540000    0.00000       Uiso       1.00
       H78          H  0.2274000  0.6582000  0.3813000    0.00000       Uiso       1.00
       H79          H  0.0107000  0.7140000  0.2374000    0.00000       Uiso       1.00
       H80          H  0.9613000  0.6314000  0.3028000    0.00000       Uiso       1.00
       H81          H  0.1100000  0.7762000  0.2557000    0.00000       Uiso       1.00
       C82          C  0.9227000  0.5458000  0.0541000    0.00000       Uiso       1.00
       C83          C  0.1499000  0.4526000  0.9007000    0.00000       Uiso       1.00
       C84          C  0.1875000  0.5981000  0.8673000    0.00000       Uiso       1.00
       C85          C  0.2515000  0.6008000  0.7816000    0.00000       Uiso       1.00
       C86          C  0.2530000  0.6942000  0.7899000    0.00000       Uiso       1.00
       C87          C  0.1588000  0.6454000  0.9150000    0.00000       Uiso       1.00
       C88          C  0.2840000  0.6477000  0.7456000    0.00000       Uiso       1.00
       N89          N  0.2823000  0.7437000  0.7494000    0.00000       Uiso       1.00
       C90          C  0.1896000  0.6920000  0.8728000    0.00000       Uiso       1.00
       C91          C  0.4688000  0.0475000  0.5475000    0.00000       Uiso       1.00
       C92          C  0.5642000  0.0965000  0.3899000    0.00000       Uiso       1.00
       C93          C  0.6400000  0.1050000  0.4052000    0.00000       Uiso       1.00
       C94          C  0.6691000  0.1528000  0.3647000    0.00000       Uiso       1.00
       C95          C  0.6231000  0.1936000  0.3081000    0.00000       Uiso       1.00
       C96          C  0.5480000  0.1841000  0.2841000    0.00000       Uiso       1.00
       C97          C  0.5194000  0.1364000  0.3206000    0.00000       Uiso       1.00
       C98          C  0.6502000  0.2462000  0.2732000    0.00000       Uiso       1.00
       H99          H  0.9502000  0.5810000  0.0443000    0.00000       Uiso       1.00
      H100          H  0.2761000  0.5669000  0.7359000    0.00000       Uiso       1.00
      H101          H  0.1115000  0.6475000  0.9839000    0.00000       Uiso       1.00
      H102          H  0.3318000  0.6474001  0.6770000    0.00000       Uiso       1.00
      H103          H  0.1640000  0.7270000  0.9072000    0.00000       Uiso       1.00
      H104          H  0.6768000  0.0752000  0.4540000    0.00000       Uiso       1.00
      H105          H  0.7274000  0.1582000  0.3813000    0.00000       Uiso       1.00
      H106          H  0.5107000  0.2140000  0.2374000    0.00000       Uiso       1.00
      H107          H  0.4613000  0.1314000  0.3028000    0.00000       Uiso       1.00
      H108          H  0.6100000  0.2762000  0.2557000    0.00000       Uiso       1.00
      C109          C  0.4227000  0.9542000  0.0541000    0.00000       Uiso       1.00
      C110          C  0.6499000  0.0474000  0.9007000    0.00000       Uiso       1.00
      C111          C  0.6875000  0.9019000  0.8673000    0.00000       Uiso       1.00
      C112          C  0.7515000  0.8992000  0.7816000    0.00000       Uiso       1.00
      C113          C  0.7530000  0.8058000  0.7899000    0.00000       Uiso       1.00
      C114          C  0.6588000  0.8546000  0.9150000    0.00000       Uiso       1.00
      C115          C  0.7840000  0.8523000  0.7456000    0.00000       Uiso       1.00
      N116          N  0.7823000  0.7563000  0.7494000    0.00000       Uiso       1.00
      C117          C  0.6896000  0.8080000  0.8728000    0.00000       Uiso       1.00
      C118          C  0.9688001  0.4525000  0.5475000    0.00000       Uiso       1.00
      C119          C  0.0642000  0.4035000  0.3899000    0.00000       Uiso       1.00
      C120          C  0.1400000  0.3950000  0.4052000    0.00000       Uiso       1.00
      C121          C  0.1691000  0.3472000  0.3647000    0.00000       Uiso       1.00
      C122          C  0.1231000  0.3064000  0.3081000    0.00000       Uiso       1.00
      C123          C  0.0480000  0.3159000  0.2841000    0.00000       Uiso       1.00
      C124          C  0.0194000  0.3636000  0.3206000    0.00000       Uiso       1.00
      C125          C  0.1502000  0.2538000  0.2732000    0.00000       Uiso       1.00
      H126          H  0.4502000  0.9190000  0.0443000    0.00000       Uiso       1.00
      H127          H  0.7761000  0.9331000  0.7359000    0.00000       Uiso       1.00
      H128          H  0.6115000  0.8525000  0.9839000    0.00000       Uiso       1.00
      H129          H  0.8318000  0.8526000  0.6770000    0.00000       Uiso       1.00
      H130          H  0.6640000  0.7730000  0.9072000    0.00000       Uiso       1.00
      H131          H  0.1768000  0.4248000  0.4540000    0.00000       Uiso       1.00
      H132          H  0.2274000  0.3418000  0.3813000    0.00000       Uiso       1.00
      H133          H  0.0107000  0.2860000  0.2374000    0.00000       Uiso       1.00
      H134          H  0.9613000  0.3686000  0.3028000    0.00000       Uiso       1.00
      H135          H  0.1100000  0.2238000  0.2557000    0.00000       Uiso       1.00
      C136          C  0.9227000  0.4542000  0.0541000    0.00000       Uiso       1.00
      C137          C  0.1499000  0.5474000  0.9007000    0.00000       Uiso       1.00
      C138          C  0.1875000  0.4019000  0.8673000    0.00000       Uiso       1.00
      C139          C  0.2515000  0.3992000  0.7816000    0.00000       Uiso       1.00
      C140          C  0.2530000  0.3058000  0.7899000    0.00000       Uiso       1.00
      C141          C  0.1588000  0.3546000  0.9150000    0.00000       Uiso       1.00
      C142          C  0.2840000  0.3523000  0.7456000    0.00000       Uiso       1.00
      N143          N  0.2823000  0.2563000  0.7494000    0.00000       Uiso       1.00
      C144          C  0.1896000  0.3080000  0.8728000    0.00000       Uiso       1.00
      C145          C  0.4688000  0.9525000  0.5475000    0.00000       Uiso       1.00
      C146          C  0.5642000  0.9035000  0.3899000    0.00000       Uiso       1.00
      C147          C  0.6400000  0.8950000  0.4052000    0.00000       Uiso       1.00
      C148          C  0.6691000  0.8472000  0.3647000    0.00000       Uiso       1.00
      C149          C  0.6231000  0.8064000  0.3081000    0.00000       Uiso       1.00
      C150          C  0.5480000  0.8159000  0.2841000    0.00000       Uiso       1.00
      C151          C  0.5194000  0.8636000  0.3206000    0.00000       Uiso       1.00
      C152          C  0.6502000  0.7538000  0.2732000    0.00000       Uiso       1.00
      H153          H  0.9502000  0.4190000  0.0443000    0.00000       Uiso       1.00
      H154          H  0.2761000  0.4331000  0.7359000    0.00000       Uiso       1.00
      H155          H  0.1115000  0.3525000  0.9839000    0.00000       Uiso       1.00
      H156          H  0.3318000  0.3526000  0.6770000    0.00000       Uiso       1.00
      H157          H  0.1640000  0.2730000  0.9072000    0.00000       Uiso       1.00
      H158          H  0.6768000  0.9248000  0.4540000    0.00000       Uiso       1.00
      H159          H  0.7274000  0.8418000  0.3813000    0.00000       Uiso       1.00
      H160          H  0.5107000  0.7860001  0.2374000    0.00000       Uiso       1.00
      H161          H  0.4613000  0.8686000  0.3028000    0.00000       Uiso       1.00
      H162          H  0.6100000  0.7238000  0.2557000    0.00000       Uiso       1.00
      C163          C  0.5773000  0.9542000  0.9459000    0.00000       Uiso       1.00
      C164          C  0.3501000  0.0474000  0.0993000    0.00000       Uiso       1.00
      C165          C  0.3125000  0.9019000  0.1327000    0.00000       Uiso       1.00
      C166          C  0.2485000  0.8992000  0.2184000    0.00000       Uiso       1.00
      C167          C  0.2470000  0.8058000  0.2101000    0.00000       Uiso       1.00
      C168          C  0.3412000  0.8546000  0.0850000    0.00000       Uiso       1.00
      C169          C  0.2160000  0.8523000  0.2544000    0.00000       Uiso       1.00
      N170          N  0.2177000  0.7563000  0.2506000    0.00000       Uiso       1.00
      C171          C  0.3104000  0.8080000  0.1272000    0.00000       Uiso       1.00
      C172          C  0.0312000  0.4525000  0.4525000    0.00000       Uiso       1.00
      C173          C  0.9358000  0.4035000  0.6101000    0.00000       Uiso       1.00
      C174          C  0.8600000  0.3950000  0.5948000    0.00000       Uiso       1.00
      C175          C  0.8309000  0.3472000  0.6353000    0.00000       Uiso       1.00
      C176          C  0.8769000  0.3064000  0.6919000    0.00000       Uiso       1.00
      C177          C  0.9520000  0.3159000  0.7159000    0.00000       Uiso       1.00
      C178          C  0.9806000  0.3636000  0.6794000    0.00000       Uiso       1.00
      C179          C  0.8498000  0.2538000  0.7268000    0.00000       Uiso       1.00
      H180          H  0.5498000  0.9190000  0.9557000    0.00000       Uiso       1.00
      H181          H  0.2239000  0.9331000  0.2641000    0.00000       Uiso       1.00
      H182          H  0.3885000  0.8525000  0.0161000    0.00000       Uiso       1.00
      H183          H  0.1682000  0.8526000  0.3230000    0.00000       Uiso       1.00
      H184          H  0.3360000  0.7730000  0.0928000    0.00000       Uiso       1.00
      H185          H  0.8232000  0.4248000  0.5460000    0.00000       Uiso       1.00
      H186          H  0.7726000  0.3418000  0.6187000    0.00000       Uiso       1.00
      H187          H  0.9893000  0.2860000  0.7626000    0.00000       Uiso       1.00
      H188          H  0.0387000  0.3686000  0.6972000    0.00000       Uiso       1.00
      H189          H  0.8900000  0.2238000  0.7443000    0.00000       Uiso       1.00
      C190          C  0.0773000  0.4542000  0.9459000    0.00000       Uiso       1.00
      C191          C  0.8501000  0.5474000  0.0993000    0.00000       Uiso       1.00
      C192          C  0.8125000  0.4019000  0.1327000    0.00000       Uiso       1.00
      C193          C  0.7485000  0.3992000  0.2184000    0.00000       Uiso       1.00
      C194          C  0.7470000  0.3058000  0.2101000    0.00000       Uiso       1.00
      C195          C  0.8412000  0.3546000  0.0850000    0.00000       Uiso       1.00
      C196          C  0.7160000  0.3523000  0.2544000    0.00000       Uiso       1.00
      N197          N  0.7177000  0.2563000  0.2506000    0.00000       Uiso       1.00
      C198          C  0.8104000  0.3080000  0.1272000    0.00000       Uiso       1.00
      C199          C  0.5312000  0.9525000  0.4525000    0.00000       Uiso       1.00
      C200          C  0.4358000  0.9035000  0.6101000    0.00000       Uiso       1.00
      C201          C  0.3600000  0.8950000  0.5948000    0.00000       Uiso       1.00
      C202          C  0.3309000  0.8472000  0.6353000    0.00000       Uiso       1.00
      C203          C  0.3769000  0.8064000  0.6919000    0.00000       Uiso       1.00
      C204          C  0.4520000  0.8159000  0.7159000    0.00000       Uiso       1.00
      C205          C  0.4806000  0.8636000  0.6794000    0.00000       Uiso       1.00
      C206          C  0.3498000  0.7538000  0.7268000    0.00000       Uiso       1.00
      H207          H  0.0498000  0.4190000  0.9557000    0.00000       Uiso       1.00
      H208          H  0.7239000  0.4331000  0.2641000    0.00000       Uiso       1.00
      H209          H  0.8885000  0.3525000  0.0161000    0.00000       Uiso       1.00
      H210          H  0.6682000  0.3526000  0.3230000    0.00000       Uiso       1.00
      H211          H  0.8360000  0.2730000  0.0928000    0.00000       Uiso       1.00
      H212          H  0.3232000  0.9248000  0.5460000    0.00000       Uiso       1.00
      H213          H  0.2726000  0.8418000  0.6187000    0.00000       Uiso       1.00
      H214          H  0.4893000  0.7860001  0.7626000    0.00000       Uiso       1.00
      H215          H  0.5387000  0.8686000  0.6972000    0.00000       Uiso       1.00
      H216          H  0.3900000  0.7238000  0.7443000    0.00000       Uiso       1.00
      C217          C  0.5394000  0.0000000  0.9735000    0.00000       Uiso       1.00
      C218          C  0.3146000  0.0000000  0.1153000    0.00000       Uiso       1.00
      C219          C  0.5614000  0.0000000  0.4106000    0.00000       Uiso       1.00
      H220          H  0.2583000  0.0000000  0.1374000    0.00000       Uiso       1.00
      H221          H  0.6077000  0.0000000  0.3364000    0.00000       Uiso       1.00
      C222          C  0.0394000  0.5000000  0.9735000    0.00000       Uiso       1.00
      C223          C  0.8146000  0.5000000  0.1153000    0.00000       Uiso       1.00
      C224          C  0.0614000  0.5000000  0.4106000    0.00000       Uiso       1.00
      H225          H  0.7583000  0.5000000  0.1374000    0.00000       Uiso       1.00
      H226          H  0.1077000  0.5000000  0.3364000    0.00000       Uiso       1.00
      C227          C  0.4606000  0.0000000  0.0265000    0.00000       Uiso       1.00
      C228          C  0.6854000  0.0000000  0.8847000    0.00000       Uiso       1.00
      C229          C  0.4386000  0.0000000  0.5894000    0.00000       Uiso       1.00
      H230          H  0.7417000  0.0000000  0.8626000    0.00000       Uiso       1.00
      H231          H  0.3923000  0.0000000  0.6636000    0.00000       Uiso       1.00
      C232          C  0.9606000  0.5000000  0.0265000    0.00000       Uiso       1.00
      C233          C  0.1854000  0.5000000  0.8847000    0.00000       Uiso       1.00
      C234          C  0.9386000  0.5000000  0.5894000    0.00000       Uiso       1.00
      H235          H  0.2417000  0.5000000  0.8626000    0.00000       Uiso       1.00
      H236          H  0.8923000  0.5000000  0.6636000    0.00000       Uiso       1.00
